634876
  -OEChem-11212217533D

 78 85  0     0  0  0  0  0  0999 V2000
   -2.0834   -1.0013    0.1904 P   0  0  0  0  0  0  0  0  0  0  0  0
    2.0834   -1.0014   -0.1904 P   0  0  0  0  0  0  0  0  0  0  0  0
   -0.2603    1.0125   -0.6820 C   0  0  0  0  0  0  0  0  0  0  0  0
    0.2604    1.0125    0.6820 C   0  0  0  0  0  0  0  0  0  0  0  0
   -1.3076    0.1514   -1.0111 C   0  0  0  0  0  0  0  0  0  0  0  0
    1.3076    0.1514    1.0110 C   0  0  0  0  0  0  0  0  0  0  0  0
    0.2908    1.8715   -1.6467 C   0  0  0  0  0  0  0  0  0  0  0  0
   -0.2909    1.8715    1.6467 C   0  0  0  0  0  0  0  0  0  0  0  0
   -0.2275    1.8570   -2.9636 C   0  0  0  0  0  0  0  0  0  0  0  0
    0.2275    1.8570    2.9636 C   0  0  0  0  0  0  0  0  0  0  0  0
   -1.8175    0.1372   -2.3059 C   0  0  0  0  0  0  0  0  0  0  0  0
    1.8174    0.1372    2.3059 C   0  0  0  0  0  0  0  0  0  0  0  0
   -1.2820    0.9839   -3.2768 C   0  0  0  0  0  0  0  0  0  0  0  0
    1.2820    0.9839    3.2768 C   0  0  0  0  0  0  0  0  0  0  0  0
    1.3452    2.7445   -1.3333 C   0  0  0  0  0  0  0  0  0  0  0  0
   -1.3452    2.7446    1.3333 C   0  0  0  0  0  0  0  0  0  0  0  0
   -2.6754   -2.4765   -0.8321 C   0  0  0  0  0  0  0  0  0  0  0  0
   -3.6821   -0.0740    0.5905 C   0  0  0  0  0  0  0  0  0  0  0  0
    2.6755   -2.4764    0.8321 C   0  0  0  0  0  0  0  0  0  0  0  0
    3.6821   -0.0740   -0.5906 C   0  0  0  0  0  0  0  0  0  0  0  0
    0.3236    2.7162   -3.9283 C   0  0  0  0  0  0  0  0  0  0  0  0
   -0.3236    2.7162    3.9282 C   0  0  0  0  0  0  0  0  0  0  0  0
    1.8807    3.5912   -2.3044 C   0  0  0  0  0  0  0  0  0  0  0  0
   -1.8808    3.5912    2.3043 C   0  0  0  0  0  0  0  0  0  0  0  0
    1.3711    3.5771   -3.5993 C   0  0  0  0  0  0  0  0  0  0  0  0
   -1.3710    3.5771    3.5994 C   0  0  0  0  0  0  0  0  0  0  0  0
   -4.0123   -2.5835   -1.0656 C   0  0  0  0  0  0  0  0  0  0  0  0
   -4.3370   -0.4164    1.7332 C   0  0  0  0  0  0  0  0  0  0  0  0
    4.0124   -2.5835    1.0656 C   0  0  0  0  0  0  0  0  0  0  0  0
    4.3369   -0.4163   -1.7332 C   0  0  0  0  0  0  0  0  0  0  0  0
   -1.7311   -3.3503   -1.2766 C   0  0  0  0  0  0  0  0  0  0  0  0
   -4.0872    0.8824   -0.2885 C   0  0  0  0  0  0  0  0  0  0  0  0
    1.7311   -3.3503    1.2767 C   0  0  0  0  0  0  0  0  0  0  0  0
    4.0872    0.8825    0.2885 C   0  0  0  0  0  0  0  0  0  0  0  0
   -4.4484   -3.6733   -1.8191 C   0  0  0  0  0  0  0  0  0  0  0  0
   -5.5169    0.2672    2.0268 C   0  0  0  0  0  0  0  0  0  0  0  0
    4.4485   -3.6734    1.8192 C   0  0  0  0  0  0  0  0  0  0  0  0
    5.5169    0.2673   -2.0268 C   0  0  0  0  0  0  0  0  0  0  0  0
   -2.1671   -4.4401   -2.0303 C   0  0  0  0  0  0  0  0  0  0  0  0
   -5.2672    1.5662    0.0050 C   0  0  0  0  0  0  0  0  0  0  0  0
    2.1671   -4.4401    2.0303 C   0  0  0  0  0  0  0  0  0  0  0  0
    5.2672    1.5662   -0.0050 C   0  0  0  0  0  0  0  0  0  0  0  0
   -3.5259   -4.6015   -2.3014 C   0  0  0  0  0  0  0  0  0  0  0  0
   -5.9819    1.2586    1.1627 C   0  0  0  0  0  0  0  0  0  0  0  0
    3.5258   -4.6015    2.3014 C   0  0  0  0  0  0  0  0  0  0  0  0
    5.9819    1.2585   -1.1627 C   0  0  0  0  0  0  0  0  0  0  0  0
   -2.6325   -0.5088   -2.6181 H   0  0  0  0  0  0  0  0  0  0  0  0
    2.6325   -0.5089    2.6181 H   0  0  0  0  0  0  0  0  0  0  0  0
   -1.6963    0.9570   -4.2826 H   0  0  0  0  0  0  0  0  0  0  0  0
    1.6962    0.9570    4.2826 H   0  0  0  0  0  0  0  0  0  0  0  0
    1.7762    2.8089   -0.3384 H   0  0  0  0  0  0  0  0  0  0  0  0
   -1.7762    2.8090    0.3383 H   0  0  0  0  0  0  0  0  0  0  0  0
   -0.0593    2.7220   -4.9467 H   0  0  0  0  0  0  0  0  0  0  0  0
    0.0592    2.7219    4.9466 H   0  0  0  0  0  0  0  0  0  0  0  0
    2.6951    4.2628   -2.0486 H   0  0  0  0  0  0  0  0  0  0  0  0
   -2.6952    4.2629    2.0487 H   0  0  0  0  0  0  0  0  0  0  0  0
    1.7884    4.2367   -4.3544 H   0  0  0  0  0  0  0  0  0  0  0  0
   -1.7883    4.2368    4.3546 H   0  0  0  0  0  0  0  0  0  0  0  0
   -4.7719   -1.8973   -0.7194 H   0  0  0  0  0  0  0  0  0  0  0  0
   -3.9822   -1.1858    2.4109 H   0  0  0  0  0  0  0  0  0  0  0  0
    4.7720   -1.8973    0.7196 H   0  0  0  0  0  0  0  0  0  0  0  0
    3.9822   -1.1857   -2.4110 H   0  0  0  0  0  0  0  0  0  0  0  0
   -0.6721   -3.2327   -1.0750 H   0  0  0  0  0  0  0  0  0  0  0  0
   -3.6016    1.1932   -1.1954 H   0  0  0  0  0  0  0  0  0  0  0  0
    0.6721   -3.2326    1.0751 H   0  0  0  0  0  0  0  0  0  0  0  0
    3.6017    1.1932    1.1954 H   0  0  0  0  0  0  0  0  0  0  0  0
   -5.5062   -3.7997   -2.0311 H   0  0  0  0  0  0  0  0  0  0  0  0
   -6.0733    0.0280    2.9283 H   0  0  0  0  0  0  0  0  0  0  0  0
    5.5063   -3.7997    2.0312 H   0  0  0  0  0  0  0  0  0  0  0  0
    6.0734    0.0281   -2.9283 H   0  0  0  0  0  0  0  0  0  0  0  0
   -1.4486   -5.1624   -2.4067 H   0  0  0  0  0  0  0  0  0  0  0  0
   -5.6294    2.3402   -0.6656 H   0  0  0  0  0  0  0  0  0  0  0  0
    1.4486   -5.1624    2.4068 H   0  0  0  0  0  0  0  0  0  0  0  0
    5.6294    2.3402    0.6656 H   0  0  0  0  0  0  0  0  0  0  0  0
   -3.8653   -5.4499   -2.8885 H   0  0  0  0  0  0  0  0  0  0  0  0
   -6.9001    1.7915    1.3917 H   0  0  0  0  0  0  0  0  0  0  0  0
    3.8653   -5.4499    2.8885 H   0  0  0  0  0  0  0  0  0  0  0  0
    6.9002    1.7915   -1.3916 H   0  0  0  0  0  0  0  0  0  0  0  0
  1  5  1  0  0  0  0
  1 17  1  0  0  0  0
  1 18  1  0  0  0  0
  2  6  1  0  0  0  0
  2 19  1  0  0  0  0
  2 20  1  0  0  0  0
  3  4  1  0  0  0  0
  3  5  2  0  0  0  0
  3  7  1  0  0  0  0
  4  6  2  0  0  0  0
  4  8  1  0  0  0  0
  5 11  1  0  0  0  0
  6 12  1  0  0  0  0
  7  9  1  0  0  0  0
  7 15  2  0  0  0  0
  8 10  1  0  0  0  0
  8 16  2  0  0  0  0
  9 13  1  0  0  0  0
  9 21  2  0  0  0  0
 10 14  1  0  0  0  0
 10 22  2  0  0  0  0
 11 13  2  0  0  0  0
 11 47  1  0  0  0  0
 12 14  2  0  0  0  0
 12 48  1  0  0  0  0
 13 49  1  0  0  0  0
 14 50  1  0  0  0  0
 15 23  1  0  0  0  0
 15 51  1  0  0  0  0
 16 24  1  0  0  0  0
 16 52  1  0  0  0  0
 17 27  2  0  0  0  0
 17 31  1  0  0  0  0
 18 28  2  0  0  0  0
 18 32  1  0  0  0  0
 19 29  2  0  0  0  0
 19 33  1  0  0  0  0
 20 30  2  0  0  0  0
 20 34  1  0  0  0  0
 21 25  1  0  0  0  0
 21 53  1  0  0  0  0
 22 26  1  0  0  0  0
 22 54  1  0  0  0  0
 23 25  2  0  0  0  0
 23 55  1  0  0  0  0
 24 26  2  0  0  0  0
 24 56  1  0  0  0  0
 25 57  1  0  0  0  0
 26 58  1  0  0  0  0
 27 35  1  0  0  0  0
 27 59  1  0  0  0  0
 28 36  1  0  0  0  0
 28 60  1  0  0  0  0
 29 37  1  0  0  0  0
 29 61  1  0  0  0  0
 30 38  1  0  0  0  0
 30 62  1  0  0  0  0
 31 39  2  0  0  0  0
 31 63  1  0  0  0  0
 32 40  2  0  0  0  0
 32 64  1  0  0  0  0
 33 41  2  0  0  0  0
 33 65  1  0  0  0  0
 34 42  2  0  0  0  0
 34 66  1  0  0  0  0
 35 43  2  0  0  0  0
 35 67  1  0  0  0  0
 36 44  2  0  0  0  0
 36 68  1  0  0  0  0
 37 45  2  0  0  0  0
 37 69  1  0  0  0  0
 38 46  2  0  0  0  0
 38 70  1  0  0  0  0
 39 43  1  0  0  0  0
 39 71  1  0  0  0  0
 40 44  1  0  0  0  0
 40 72  1  0  0  0  0
 41 45  1  0  0  0  0
 41 73  1  0  0  0  0
 42 46  1  0  0  0  0
 42 74  1  0  0  0  0
 43 75  1  0  0  0  0
 44 76  1  0  0  0  0
 45 77  1  0  0  0  0
 46 78  1  0  0  0  0
M  END
> <PUBCHEM_COMPOUND_CID>
634876

> <PUBCHEM_CONFORMER_RMSD>
1

> <PUBCHEM_CONFORMER_DIVERSEORDER>
1
2
4
3

> <PUBCHEM_MMFF94_PARTIAL_CHARGES>
72
1 -0.04
11 -0.15
12 -0.15
13 -0.15
14 -0.15
15 -0.15
16 -0.15
17 0.01
18 0.01
19 0.01
2 -0.04
20 0.01
21 -0.15
22 -0.15
23 -0.15
24 -0.15
25 -0.15
26 -0.15
27 -0.15
28 -0.15
29 -0.15
30 -0.15
31 -0.15
32 -0.15
33 -0.15
34 -0.15
35 -0.15
36 -0.15
37 -0.15
38 -0.15
39 -0.15
40 -0.15
41 -0.15
42 -0.15
43 -0.15
44 -0.15
45 -0.15
46 -0.15
47 0.15
48 0.15
49 0.15
5 0.01
50 0.15
51 0.15
52 0.15
53 0.15
54 0.15
55 0.15
56 0.15
57 0.15
58 0.15
59 0.15
6 0.01
60 0.15
61 0.15
62 0.15
63 0.15
64 0.15
65 0.15
66 0.15
67 0.15
68 0.15
69 0.15
70 0.15
71 0.15
72 0.15
73 0.15
74 0.15
75 0.15
76 0.15
77 0.15
78 0.15

> <PUBCHEM_EFFECTIVE_ROTOR_COUNT>
7

> <PUBCHEM_PHARMACOPHORE_FEATURES>
8
6 17 27 31 35 39 43 rings
6 18 28 32 36 40 44 rings
6 19 29 33 37 41 45 rings
6 20 30 34 38 42 46 rings
6 3 5 7 9 11 13 rings
6 4 6 8 10 12 14 rings
6 7 9 15 21 23 25 rings
6 8 10 16 22 24 26 rings

> <PUBCHEM_HEAVY_ATOM_COUNT>
46

> <PUBCHEM_ATOM_DEF_STEREO_COUNT>
0

> <PUBCHEM_ATOM_UDEF_STEREO_COUNT>
0

> <PUBCHEM_BOND_DEF_STEREO_COUNT>
0

> <PUBCHEM_BOND_UDEF_STEREO_COUNT>
0

> <PUBCHEM_ISOTOPIC_ATOM_COUNT>
0

> <PUBCHEM_COMPONENT_COUNT>
1

> <PUBCHEM_CACTVS_TAUTO_COUNT>
1

> <PUBCHEM_CONFORMER_ID>
0009AFFC00000001

> <PUBCHEM_MMFF94_ENERGY>
202.9921

> <PUBCHEM_FEATURE_SELFOVERLAP>
40.659

> <PUBCHEM_SHAPE_FINGERPRINT>
10032420 55 17623861523061953693
11093857 51 17682933837684518974
11445158 3 17760375387912381512
12633046 712 18128792253387151559
12788726 201 17916873400061701577
1361 2 17896054281177411380
14040222 220 18200304403889900631
14068700 675 18198911495052708796
19319366 153 18046931525888305163
20764821 26 18126254546117147243
21583282 1 18114753637452568486
469060 322 18041829735905632102
66674814 147 17826509161366289822

> <PUBCHEM_SHAPE_MULTIPOLES>
954.36
10.35
6.41
4.49
0
6.41
0
4.03
0
0
0
0
-3.56
-6.63

> <PUBCHEM_SHAPE_SELFOVERLAP>
2122.909

> <PUBCHEM_SHAPE_VOLUME>
503

> <PUBCHEM_COORDINATE_TYPE>
2
5
10

$$$$
